electric-grid/physical/synthetic/synAustinTD/models/syn-austin-D_only-v03/P1R/base/opendss/p1rhs6_1247/Master.dss
Clear

New Circuit.substation_p1rhs6_69 bus1=p1rhs6_69 pu=1.0 basekV=69.0 R1=1e-05 X1=1e-05 R0=1e-05 X0=1e-05

Redirect Transformers.dss
Redirect p1rhs6_1247--p1rdt476/Transformers.dss
Redirect p1rhs6_1247--p1rdt6561/Transformers.dss
Redirect Regulators.dss
Redirect p1rhs6_1247--p1rdt476/Loads.dss
Redirect p1rhs6_1247--p1rdt6561/Loads.dss
Redirect LineCodes.dss
Redirect p1rhs6_1247--p1rdt476/LineCodes.dss
Redirect p1rhs6_1247--p1rdt6561/LineCodes.dss
Redirect Lines.dss
Redirect p1rhs6_1247--p1rdt476/Lines.dss
Redirect p1rhs6_1247--p1rdt6561/Lines.dss

Set Voltagebases=[0.2080002494301389, 0.48, 7.199560000000001, 12.47, 69.0]

Calcvoltagebases

Buscoords Buscoords.dss

Solve